https://bitbucket.org/berkeleylab/mhm2
https://bitbucket.org/icl/magma
https://bitbucket.org/icl/papi
https://bitbucket.org/johanneskoester/peanut
https://bitbucket.org/rteyssie/ramses
https://git.cms.waikato.ac.nz/weka/weka
https://git.code.sf.net/p/grasshopper-assembler/code
https://github.com/3dem/relion
https://github.com/abinit/abinit
https://github.com/aidenlab/juicer
https://github.com/akiyamalab/ghostz-gpu
https://github.com/akiyamalab/MEGADOCK
https://github.com/AlexandrovLab/SigProfilerExtractor
https://github.com/alexdobin/STAR
https://github.com/allegroai/clearml/
https://github.com/AMReX-Astro/MAESTRO/
https://github.com/AMReX-Codes/amrex/
https://github.com/ArnovanHilten/GenNet
https://github.com/arrayfire/arrayfire
https://github.com/BarsegovGroup/SOP-GPU
https://github.com/beagle-dev/beagle-lib
https://github.com/beast-dev/beast-mcmc
https://github.com/BIDData/BIDMach
https://github.com/bioinform/neusomatic
https://github.com/bio-phys/cadishi
https://github.com/bio-phys/capriqorn
https://github.com/bio-phys/cnt-gaff
https://github.com/bio-phys/pydiffusion
https://github.com/BOINC/boinc
https://github.com/BPHO-Salk/PSSR
https://github.com/broadinstitute/gatk
https://github.com/BVLC/caffe
https://github.com/ccsb-scripps/AutoDock-GPU
https://github.com/cctbx/cctbx_project
https://github.com/Colvars/colvars
https://github.com/CompEvol/beast2
https://github.com/ComputationalRadiationPhysics/picongpu
https://github.com/conda/conda
https://github.com/conda/conda-build
https://github.com/cp2k/cp2k
https://github.com/cramerlab/warp
https://github.com/cran/WideLM
https://github.com/cryoem/eman2
https://github.com/CSB5/lofreq
https://github.com/cupy/cupy/
https://github.com/deepmodeling/deepmd-kit
https://github.com/determined-ai/determined
https://github.com/DmitryLyakh/TAL_SH
https://github.com/DualSPHysics/DualSPHysics
https://github.com/E3SM-Project/e3sm_diags
https://github.com/edanssandes/MASA-CUDAlign
https://github.com/espressomd/espresso
https://github.com/evaneschneider/cholla
https://github.com/FFmpeg/FFmpeg
https://github.com/funatiq/cuclark
https://github.com/gamer-project/gamer
https://github.com/genesis-release-r-ccs/genesis
https://github.com/glotzerlab/hoomd-blue
https://github.com/google/deepvariant
https://github.com/halmd-org/halmd
https://github.com/hasindu2008/f5c
https://github.com/HPGeoC/awp-odc-os
https://github.com/IBM-Cloud/hpc-cluster-lsf
https://github.com/imodpasteur/ANNA-PALM
https://github.com/InsightSoftwareConsortium/ITK
https://github.com/j-bac/elpigraph-python
https://github.com/JeffersonLab/chroma
https://github.com/JuliaLang/julia
https://github.com/keras-team/keras
https://github.com/kipoi/kipoi
https://github.com/kishwarshafin/pepper
https://github.com/Kitware/CMake
https://github.com/lablup/backend.ai
https://github.com/lammps/lammps
https://github.com/lanl/LATTE
https://github.com/lattice/quda
https://github.com/lbcb-sci/racon
https://github.com/lbcb-sci/raven
https://github.com/lcrawlab/BANNs
https://github.com/lh3/bwa
https://github.com/LouisFaure/Harmony-GPU
https://github.com/LouisFaure/scFates
https://github.com/maccallumlab/meld
https://github.com/mengmayang/MetaBinG2kit
https://github.com/MicrobeLab/DeepMicrobes
https://github.com/milc-qcd/milc_qcd/
https://github.com/mlrun/mlrun
https://github.com/Molcas/OpenMolcas
https://github.com/mrfil/PowerGrid/
https://github.com/muellan/metacache
https://github.com/mummer4/mummer
https://github.com/nanoporetech/bonito
https://github.com/nanoporetech/medaka
https://github.com/nanoporetech/megalodon
https://github.com/nanoporetech/minknow_api
https://github.com/N-BodyShop/changa
https://github.com/nodrogluap/OpenDBA
https://github.com/numba/numba
https://github.com/NVIDIA-Genomics-Research/AtacWorks
https://github.com/NVIDIA-Genomics-Research/GenomeWorks
https://github.com/NVIDIA-Genomics-Research/VariantWorks
https://github.com/NVlabs/nvbio
https://github.com/nwchemgit/nwchem/
https://github.com/OHIF/Viewers
https://github.com/openchemistry/tomvizdocs/
https://github.com/OpenHero/gblastn/
https://github.com/openmm/openmm
https://github.com/PaddlePaddle/Paddle
https://github.com/projectchrono/chrono
https://github.com/pystatgen/sgkit
https://github.com/pytorch/pytorch/
https://github.com/qboxcode/qbox-public
https://github.com/QMCPACK/qmcpack
https://github.com/RBC-UKQCD/CPS_public
https://github.com/RMGDFT/rmgdft
https://github.com/RWilton/Arioc
https://github.com/SamStudio8/reticulatus
https://github.com/schrodinger/pymol-open-source
https://github.com/Slicer/Slicer
https://github.com/StochasticAnalytics/emClarity
https://github.com/tbepler/topaz
https://github.com/tensorflow/tensorflow
https://github.com/theislab/deepflow
https://github.com/thuem/THUNDER
https://github.com/torch/torch7
https://github.com/ugeneunipro/ugene
https://github.com/UMCUGenetics/bamMetrics
https://github.com/videolan/vlc
https://github.com/vlfeat/matconvnet
https://github.com/wwylab/MuSE
https://github.com/youliangzhu/pygamd-v1
https://gitlab.com/bsc-alya/open-alya
https://gitlab.com/dalton/dalton
https://gitlab.com/dalton/lsdalton
https://gitlab.com/gromacs/gromacs/
https://gitlab.com/hpctoolkit/hpctoolkit
https://gitlab.com/libxc/libxc
https://gitlab.com/l_sim/bigdft-suite
https://gitlab.com/QEF/q-e
https://gitlab.mpcdf.mpg.de/elpa/elpa
https://phabricator.mitk.org/source/mitk.git
